*SRC=BZX84C4V7;DI_BZX84C4V7;Diodes;Zener <=10V; 4.70V  0.350W   Diodes Inc. 
*SYM=HZEN
.SUBCKT DI_BZX84C4V7  1 2
*        Terminals    A   K
D1 1 2 DF
DZ 3 1 DR
VZ 2 3 2.25
.MODEL DF D ( IS=30.7p RS=34.2 N=1.10
+ CJO=74.9p VJ=0.750 M=0.330 TT=50.1n )
.MODEL DR D ( IS=6.14f RS=64.5 N=3.00 )
.ENDS