*----------------------------------------------------------------------
* SPICE Netlist Generated by TDK Corporation
* Copyright(C) 2015 TDK Corporation.
* All Rights Reserved.
*----------------------------------------------------------------------
* TDK P/N: CGJ4C2C0G2A101J060AA (Multilayer Ceramic Chip Capacitor)
* Property: C=100pF
* Size(LxWxT): 2x1.25x0.6mm, 0.079x0.049x0.024inches
* Model Type: Precise Model
* Model Generated on June 29, 2015
*----------------------------------------------------------------------
* Terms and conditions regarding TDK Simulation Models:
* 1)This simulation model is being provided solely for informational
*   purposes. Please refer to the specifications of the products in
*   terms of detailed characteristics of such products.
* 2)In no event shall TDK Corporation of any of its subsidiaries be
*   liable for any loss or damage arising, directly or indirectly,
*   from any information contained in this simulation model, including,
*   but not limited to loss or damages arising from any inaccuracies,
*   omissions or errors in connection with such information.
* 3)Any and all copyrights on this simulation model are owned by
*   TDK Corporation.  Duplication or redistribution of this simulation
*   model without prior written permission from TDK Corporation
*   is prohibited.
* 4)This simulation model is subject to any modification or change
*   without any prior notice.
* 5)Neither TDK Corporation nor any of its subsidiaries shall make any
*   warranty, express or implied, including but not limited to the
*   correctness, implied warranties of merchantability and fitness for
*   a particular purpose with respect to this simulation models.
* 6)The use of this simulation model shall be deemed to have consented
*   to the terms and conditions hereof.
*----------------------------------------------------------------------
* External Node Assignments:
*
*  n1 ---| |--- n2
*
*----------------------------------------------------------------------
* Applicable Conditions:
*   Temperature = 25 degC
*   DC Bias Voltage = 0 V
*   Small Signal Operation
*----------------------------------------------------------------------
.SUBCKT CGJ4C2C0G2A101J060AA_p n1 n2
C1 n1 11 1.00000000E-10
L1 11 12 4.21163977E-10
L2 12 13 1.70054345E-10
L3 13 14 3.86287262E-10
L4 14 15 9.38224999E-10
L5 15 16 2.78072403E-09
R1 n2 12 8.08848907E-01
R2 n2 13 3.74062062E-01
R3 n2 14 1.72989572E-01
R4 n2 15 8.00011414E-02
R5 n2 16 3.69975055E-02
R6 n1 11 1.00000000E+10
.ENDS CGJ4C2C0G2A101J060AA_p
*----------------------------------------------------------------------
